FoamFile
{
    version	 2.0;
    format	 ascii;
    class	 dictionary;
    object	 blockMeshDict;
}

convertToMeters	 1.0;

vertices
(
    ( -0.1   -0.1  -0.1 )  //0    
    (  0.2   -0.1  -0.1 )  //1
    (  0.2    0.1  -0.1 )  //2
    ( -0.1    0.1  -0.1 )  //3
    ( -0.1   -0.1   0.1 )  //4
    (  0.2   -0.1   0.1 )  //5
    (  0.2    0.1   0.1 )  //6
    ( -0.1    0.1   0.1 )  //7
);

blocks
(
    hex (0 1 2 3 4 5 6 7) (80 60 60) simpleGrading (1 1 1)
);

patches
(
    patch inlet
    (
        (0 4 7 3)
    )
    patch outlet
    (
        (1 2 6 5)
    )
    patch sides
    (
        (0 1 5 4)
        (2 3 7 6)
        (4 5 6 7)
        (0 3 2 1)
    )
);

mergPatchPairs
(
);
