/*--------------------------------*- C++ -*----------------------------------*\
| =========                 |                                                 |
| \\      /  F ield         | OpenFOAM: The Open Source CFD Toolbox           |
|  \\    /   O peration     | Version:  1.6                                   |
|   \\  /    A nd           | Web:      www.OpenFOAM.org                      |
|    \\/     M anipulation  |                                                 |
\*---------------------------------------------------------------------------*/
FoamFile
{
    version     2.0;
    format      ascii;
    class       dictionary;
    location    "system";
    object      controlDict;
}
// * * * * * * * * * * * * * * * * * * * * * * * * * * * * * * * * * * * * * //

application     potentialFoam;

startFrom       latestTime;

startTime       0;

stopAt          nextWrite;

endTime         1;

deltaT          1;

writeControl    timeStep;

writeInterval   1;

purgeWrite      0;

writeFormat     ascii;

writePrecision  6;

writeCompression off;

timeFormat      general;

timePrecision   6;

runTimeModifiable true;


functions
{

/*
pressure1
{
    // Mandatory entries (unmodifiable)
    type            pressure;
    libs            (fieldFunctionObjects);

    // Mandatory entries (runtime modifiable)
    mode            totalCoeff;

    // Optional entries (runtime modifiable)
    p               p;
    U               U;
    rho             rhoInf;
    rhoInf          1.0; // enabled if rho=rhoInf
    pRef            0.0;
    hydroStaticMode none;
    g               (0 -9.81 0); // enabled if hydroStaticMode != none
    hRef            0.0;         // enabled if hydroStaticMode != none
    pInf            0.0;
    UInf            (0.1 0 0);
}
*/

forces1
{
    // Mandatory entries
    type            forces;
    libs            ("libforces.so");
    patches         ("sphere");


    // Optional entries

    // Field names
    p               p;
    U               U;
    rho         rhoInf;
    rhoInf          1;

    // Reference pressure [Pa]
    pRef            0;

    // Include porosity effects?
    porosity        no;

    // Store and write volume field representations of forces and moments
    writeFields     no;

    // Centre of rotation for moment calculations
    CofR            (0 0 0);

    // Spatial data binning
    // - extents given by the bounds of the input geometry
    binData
    {
        nBin        20;
        direction   (1 0 0);
        cumulative  yes;
    }
}

}

// ************************************************************************* //
