/*--------------------------------*- C++ -*----------------------------------*\
| =========                 |                                                 |
| \\      /  F ield         | OpenFOAM: The Open Source CFD Toolbox           |
|  \\    /   O peration     | Version:  v2112                                 |
|   \\  /    A nd           | Website:  www.openfoam.com                      |
|    \\/     M anipulation  |                                                 |
\*---------------------------------------------------------------------------*/
FoamFile
{
    version     2.0;
    format      ascii;
    class       dictionary;
    object      controlDict;
}
// * * * * * * * * * * * * * * * * * * * * * * * * * * * * * * * * * * * * * //

application     icoFoam;

startFrom       startTime;

startTime       0;

stopAt          endTime;

endTime         40;

deltaT          0.005;

writeControl    timeStep;

writeInterval   200;

purgeWrite      0;

writeFormat     ascii;

writePrecision  6;

writeCompression off;

timeFormat      general;

timePrecision   6;

runTimeModifiable true;


functions
{
    probes_object
    {
        type            probes;
        functionObjectLibs ("libsampling.so");
        enabled         true;
        outputControl   timeStep;
        outputInterval  1;
        probeLocations
        (
            (0.5  0.0547 0.05)
            (0.5  0.0625 0.05)
            (0.5  0.0703 0.05)
            (0.5  0.1016 0.05)
            (0.5  0.1719 0.05)
            (0.5  0.2813 0.05)
            (0.5  0.4531 0.05)
            (0.5  0.5000 0.05)
            (0.5  0.6172 0.05)
            (0.5  0.7344 0.05)
            (0.5  0.8516 0.05)
            (0.5  0.9531 0.05)
            (0.5  0.9609 0.05)
            (0.5  0.9688 0.05)
            (0.5  0.9766 0.05)
        );
        fields
        (
            U
            p
        );
    }

}


// ************************************************************************* //
